data_image0
_cell_length_a       8.17073
_cell_length_b       8.17073
_cell_length_c       8.17073
_cell_angle_alpha    90
_cell_angle_beta     90
_cell_angle_gamma    90

_symmetry_space_group_name_H-M    "P 1"
_symmetry_int_tables_number       1

loop_
  _symmetry_equiv_pos_as_xyz
  'x, y, z'

loop_
  _atom_site_label
  _atom_site_occupancy
  _atom_site_fract_x
  _atom_site_fract_y
  _atom_site_fract_z
  _atom_site_thermal_displace_type
  _atom_site_B_iso_or_equiv
  _atom_site_type_symbol
  Cd1      1.0000 0.00000  0.00000  0.50000  Biso   1.000  Cd
  Cd2      1.0000 0.00000  0.50000  0.00000  Biso   1.000  Cd
  Cd3      1.0000 0.50000  0.50000  0.50000  Biso   1.000  Cd
  Cd4      1.0000 0.50000  0.00000  0.00000  Biso   1.000  Cd
  Cd5      1.0000 0.75000  0.25000  0.25000  Biso   1.000  Cd
  Cd6      1.0000 0.25000  0.25000  0.75000  Biso   1.000  Cd
  Cd7      1.0000 0.25000  0.75000  0.25000  Biso   1.000  Cd
  Cd8      1.0000 0.75000  0.75000  0.75000  Biso   1.000  Cd
  B1       1.0000 0.12500  0.12500  0.12500  Biso   1.000  B
  B2       1.0000 0.87500  0.37500  0.62500  Biso   1.000  B
  B3       1.0000 0.37500  0.62500  0.87500  Biso   1.000  B
  B4       1.0000 0.62500  0.87500  0.37500  Biso   1.000  B
  B5       1.0000 0.37500  0.87500  0.62500  Biso   1.000  B
  B6       1.0000 0.87500  0.62500  0.37500  Biso   1.000  B
  B7       1.0000 0.62500  0.37500  0.87500  Biso   1.000  B
  B8       1.0000 0.12500  0.62500  0.62500  Biso   1.000  B
  B9       1.0000 0.87500  0.87500  0.12500  Biso   1.000  B
  B10      1.0000 0.37500  0.12500  0.37500  Biso   1.000  B
  B11      1.0000 0.37500  0.37500  0.12500  Biso   1.000  B
  B12      1.0000 0.87500  0.12500  0.87500  Biso   1.000  B
  B13      1.0000 0.62500  0.12500  0.62500  Biso   1.000  B
  B14      1.0000 0.12500  0.87500  0.87500  Biso   1.000  B
  B15      1.0000 0.12500  0.37500  0.37500  Biso   1.000  B
  B16      1.0000 0.62500  0.62500  0.12500  Biso   1.000  B
  O1       1.0000 0.11137  0.11137  0.88863  Biso   1.000  O
  O2       1.0000 0.88863  0.38863  0.38863  Biso   1.000  O
  O3       1.0000 0.38863  0.61137  0.11137  Biso   1.000  O
  O4       1.0000 0.61137  0.88863  0.61137  Biso   1.000  O
  O5       1.0000 0.88863  0.11137  0.11137  Biso   1.000  O
  O6       1.0000 0.38863  0.88863  0.38863  Biso   1.000  O
  O7       1.0000 0.11137  0.38863  0.61137  Biso   1.000  O
  O8       1.0000 0.61137  0.61137  0.88863  Biso   1.000  O
  O9       1.0000 0.11137  0.88863  0.11137  Biso   1.000  O
  O10      1.0000 0.38863  0.38863  0.88863  Biso   1.000  O
  O11      1.0000 0.61137  0.11137  0.38863  Biso   1.000  O
  O12      1.0000 0.88863  0.61137  0.61137  Biso   1.000  O
  O13      1.0000 0.86137  0.36137  0.86137  Biso   1.000  O
  O14      1.0000 0.13863  0.13863  0.36137  Biso   1.000  O
  O15      1.0000 0.36137  0.63863  0.63863  Biso   1.000  O
  O16      1.0000 0.63863  0.86137  0.13863  Biso   1.000  O
  O17      1.0000 0.86137  0.13863  0.63863  Biso   1.000  O
  O18      1.0000 0.63863  0.63863  0.36137  Biso   1.000  O
  O19      1.0000 0.13863  0.36137  0.13863  Biso   1.000  O
  O20      1.0000 0.36137  0.86137  0.86137  Biso   1.000  O
  O21      1.0000 0.63863  0.36137  0.63863  Biso   1.000  O
  O22      1.0000 0.13863  0.63863  0.86137  Biso   1.000  O
  O23      1.0000 0.86137  0.86137  0.36137  Biso   1.000  O
  O24      1.0000 0.36137  0.13863  0.13863  Biso   1.000  O
  O25      1.0000 0.86137  0.63863  0.13863  Biso   1.000  O
  O26      1.0000 0.13863  0.86137  0.63863  Biso   1.000  O
  O27      1.0000 0.63863  0.13863  0.86137  Biso   1.000  O
  O28      1.0000 0.61137  0.38863  0.11137  Biso   1.000  O
  O29      1.0000 0.38863  0.11137  0.61137  Biso   1.000  O
  O30      1.0000 0.11137  0.61137  0.38863  Biso   1.000  O
  O31      1.0000 0.88863  0.88863  0.88863  Biso   1.000  O
  O32      1.0000 0.36137  0.36137  0.36137  Biso   1.000  O
