data_image0
_cell_length_a       8.17073
_cell_length_b       8.17073
_cell_length_c       8.17073
_cell_angle_alpha    90
_cell_angle_beta     90
_cell_angle_gamma    90

_symmetry_space_group_name_H-M    "P 1"
_symmetry_int_tables_number       1

loop_
  _symmetry_equiv_pos_as_xyz
  'x, y, z'

loop_
  _atom_site_label
  _atom_site_occupancy
  _atom_site_fract_x
  _atom_site_fract_y
  _atom_site_fract_z
  _atom_site_thermal_displace_type
  _atom_site_B_iso_or_equiv
  _atom_site_type_symbol
  U1       1.0000 0.00000  0.00000  0.50000  Biso   1.000  U
  U2       1.0000 0.00000  0.50000  0.00000  Biso   1.000  U
  U3       1.0000 0.50000  0.50000  0.50000  Biso   1.000  U
  U4       1.0000 0.50000  0.00000  0.00000  Biso   1.000  U
  U5       1.0000 0.75000  0.25000  0.25000  Biso   1.000  U
  U6       1.0000 0.25000  0.25000  0.75000  Biso   1.000  U
  U7       1.0000 0.25000  0.75000  0.25000  Biso   1.000  U
  U8       1.0000 0.75000  0.75000  0.75000  Biso   1.000  U
  Re1      1.0000 0.12500  0.12500  0.12500  Biso   1.000  Re
  Re2      1.0000 0.87500  0.37500  0.62500  Biso   1.000  Re
  Re3      1.0000 0.37500  0.62500  0.87500  Biso   1.000  Re
  Re4      1.0000 0.62500  0.87500  0.37500  Biso   1.000  Re
  Re5      1.0000 0.37500  0.87500  0.62500  Biso   1.000  Re
  Re6      1.0000 0.87500  0.62500  0.37500  Biso   1.000  Re
  Re7      1.0000 0.62500  0.37500  0.87500  Biso   1.000  Re
  Re8      1.0000 0.12500  0.62500  0.62500  Biso   1.000  Re
  Re9      1.0000 0.87500  0.87500  0.12500  Biso   1.000  Re
  Re10     1.0000 0.37500  0.12500  0.37500  Biso   1.000  Re
  Re11     1.0000 0.37500  0.37500  0.12500  Biso   1.000  Re
  Re12     1.0000 0.87500  0.12500  0.87500  Biso   1.000  Re
  Re13     1.0000 0.62500  0.12500  0.62500  Biso   1.000  Re
  Re14     1.0000 0.12500  0.87500  0.87500  Biso   1.000  Re
  Re15     1.0000 0.12500  0.37500  0.37500  Biso   1.000  Re
  Re16     1.0000 0.62500  0.62500  0.12500  Biso   1.000  Re
  O1       1.0000 0.11137  0.11137  0.88863  Biso   1.000  O
  O2       1.0000 0.88863  0.38863  0.38863  Biso   1.000  O
  O3       1.0000 0.38863  0.61137  0.11137  Biso   1.000  O
  O4       1.0000 0.61137  0.88863  0.61137  Biso   1.000  O
  O5       1.0000 0.88863  0.11137  0.11137  Biso   1.000  O
  O6       1.0000 0.38863  0.88863  0.38863  Biso   1.000  O
  O7       1.0000 0.11137  0.38863  0.61137  Biso   1.000  O
  O8       1.0000 0.61137  0.61137  0.88863  Biso   1.000  O
  O9       1.0000 0.11137  0.88863  0.11137  Biso   1.000  O
  O10      1.0000 0.38863  0.38863  0.88863  Biso   1.000  O
  O11      1.0000 0.61137  0.11137  0.38863  Biso   1.000  O
  O12      1.0000 0.88863  0.61137  0.61137  Biso   1.000  O
  O13      1.0000 0.86137  0.36137  0.86137  Biso   1.000  O
  O14      1.0000 0.13863  0.13863  0.36137  Biso   1.000  O
  O15      1.0000 0.36137  0.63863  0.63863  Biso   1.000  O
  O16      1.0000 0.63863  0.86137  0.13863  Biso   1.000  O
  O17      1.0000 0.86137  0.13863  0.63863  Biso   1.000  O
  O18      1.0000 0.63863  0.63863  0.36137  Biso   1.000  O
  O19      1.0000 0.13863  0.36137  0.13863  Biso   1.000  O
  O20      1.0000 0.36137  0.86137  0.86137  Biso   1.000  O
  O21      1.0000 0.63863  0.36137  0.63863  Biso   1.000  O
  O22      1.0000 0.13863  0.63863  0.86137  Biso   1.000  O
  O23      1.0000 0.86137  0.86137  0.36137  Biso   1.000  O
  O24      1.0000 0.36137  0.13863  0.13863  Biso   1.000  O
  O25      1.0000 0.86137  0.63863  0.13863  Biso   1.000  O
  O26      1.0000 0.13863  0.86137  0.63863  Biso   1.000  O
  O27      1.0000 0.63863  0.13863  0.86137  Biso   1.000  O
  O28      1.0000 0.61137  0.38863  0.11137  Biso   1.000  O
  O29      1.0000 0.38863  0.11137  0.61137  Biso   1.000  O
  O30      1.0000 0.11137  0.61137  0.38863  Biso   1.000  O
  O31      1.0000 0.88863  0.88863  0.88863  Biso   1.000  O
  O32      1.0000 0.36137  0.36137  0.36137  Biso   1.000  O
